
     RDKit          3D

 38 39  0  0  0  0  0  0  0  0999 V2000
    5.4960    0.8100   22.1220 C   0  0  0  0  0  0  0  0  0  0  0  0
    5.8540    0.5680   20.6890 C   0  0  0  0  0  0  0  0  0  0  0  0
    5.0280    1.1380   19.7020 C   0  0  0  0  0  0  0  0  0  0  0  0
    6.9810   -0.2030   20.3160 C   0  0  0  0  0  0  0  0  0  0  0  0
    5.3290    0.9320   18.3800 C   0  0  0  0  0  0  0  0  0  0  0  0
    7.1570   -0.3280   18.9610 C   0  0  0  0  0  0  0  0  0  0  0  0
    7.8280   -0.7770   21.2660 N   0  0  0  0  0  0  0  0  0  0  0  0
    6.3780    0.2090   17.9940 N   0  0  0  0  0  0  0  0  0  0  0  0
    8.9080   -0.1030   22.0000 C   0  0  1  0  0  0  0  0  0  0  0  0
    8.3910    0.3750   23.3320 C   0  0  0  0  0  0  0  0  0  0  0  0
   10.2840   -0.8290   22.0720 C   0  0  2  0  0  0  0  0  0  0  0  0
   10.3580   -2.2860   22.5410 C   0  0  0  0  0  0  0  0  0  0  0  0
   11.2890    0.0140   22.8830 C   0  0  0  0  0  0  0  0  0  0  0  0
   10.8920   -2.4240   23.9600 C   0  0  0  0  0  0  0  0  0  0  0  0
   12.5910   -0.7270   23.1540 C   0  0  0  0  0  0  0  0  0  0  0  0
   12.3420   -1.9490   24.0370 C   0  0  0  0  0  0  0  0  0  0  0  0
    6.0790    1.6440   22.5220 H   0  0  0  0  0  0  0  0  0  0  0  0
    5.6970   -0.0720   22.7420 H   0  0  0  0  0  0  0  0  0  0  0  0
    4.4280    1.0310   22.2150 H   0  0  0  0  0  0  0  0  0  0  0  0
    4.1600    1.7340   19.9730 H   0  0  0  0  0  0  0  0  0  0  0  0
    4.7180    1.3550   17.5870 H   0  0  0  0  0  0  0  0  0  0  0  0
    7.9790   -0.9000   18.5500 H   0  0  0  0  0  0  0  0  0  0  0  0
    7.3650   -1.4870   21.8250 H   0  0  0  0  0  0  0  0  0  0  0  0
    9.0980    0.8180   21.4250 H   0  0  0  0  0  0  0  0  0  0  0  0
    8.3050   -0.4710   24.0220 H   0  0  0  0  0  0  0  0  0  0  0  0
    9.0690    1.1090   23.7760 H   0  0  0  0  0  0  0  0  0  0  0  0
    7.4000    0.8280   23.2650 H   0  0  0  0  0  0  0  0  0  0  0  0
   10.6460   -0.8980   21.0630 H   0  0  0  0  0  0  0  0  0  0  0  0
   11.0370   -2.8090   21.8730 H   0  0  0  0  0  0  0  0  0  0  0  0
    9.3780   -2.7780   22.4500 H   0  0  0  0  0  0  0  0  0  0  0  0
   11.5120    0.9610   22.3830 H   0  0  0  0  0  0  0  0  0  0  0  0
   10.8240    0.2720   23.8330 H   0  0  0  0  0  0  0  0  0  0  0  0
   10.2800   -1.8370   24.6480 H   0  0  0  0  0  0  0  0  0  0  0  0
   10.8250   -3.4720   24.2830 H   0  0  0  0  0  0  0  0  0  0  0  0
   13.0620   -1.0320   22.2110 H   0  0  0  0  0  0  0  0  0  0  0  0
   13.2950   -0.0470   23.6490 H   0  0  0  0  0  0  0  0  0  0  0  0
   13.0060   -2.7740   23.7400 H   0  0  0  0  0  0  0  0  0  0  0  0
   12.6050   -1.6990   25.0700 H   0  0  0  0  0  0  0  0  0  0  0  0
  1  2  1  0
  2  3  2  0
  2  4  1  0
  3  5  1  0
  4  6  2  0
  4  7  1  0
  5  8  2  0
  6  8  1  0
  7  9  1  0
  9 10  1  0
  9 11  1  0
 11 12  1  0
 11 13  1  0
 12 14  1  0
 13 15  1  0
 14 16  1  0
 15 16  1  0
  1 17  1  0
  1 18  1  0
  1 19  1  0
  3 20  1  0
  5 21  1  0
  6 22  1  0
  7 23  1  0
  9 24  1  6
 10 25  1  0
 10 26  1  0
 10 27  1  0
 11 28  1  6
 12 29  1  0
 12 30  1  0
 13 31  1  0
 13 32  1  0
 14 33  1  0
 14 34  1  0
 15 35  1  0
 15 36  1  0
 16 37  1  0
 16 38  1  0
M  END
