
     RDKit          3D

 41 42  0  0  0  0  0  0  0  0999 V2000
   -7.1070    3.2060  -79.6230 C   0  0  0  0  0  0  0  0  0  0  0  0
   -7.8480    1.9710  -79.9970 C   0  0  0  0  0  0  0  0  0  0  0  0
   -7.9800    1.0160  -79.0400 C   0  0  0  0  0  0  0  0  0  0  0  0
   -8.4180    1.7240  -81.2430 C   0  0  0  0  0  0  0  0  0  0  0  0
   -8.6480   -0.1290  -79.2860 C   0  0  0  0  0  0  0  0  0  0  0  0
   -9.1160    0.5310  -81.5190 C   0  0  0  0  0  0  0  0  0  0  0  0
   -8.2920    2.6460  -82.1730 F   0  0  0  0  0  0  0  0  0  0  0  0
   -9.2200   -0.4150  -80.4770 C   0  0  0  0  0  0  0  0  0  0  0  0
   -9.8800   -1.7570  -80.4250 C   0  0  0  0  0  0  0  0  0  0  0  0
   -9.6370   -2.1870  -79.0280 N   0  0  0  0  0  0  0  0  0  0  0  0
   -8.4050   -1.8470  -78.2970 C   0  0  0  0  0  0  0  0  0  0  0  0
   -7.3360   -1.7850  -78.9150 O   0  0  0  0  0  0  0  0  0  0  0  0
   -8.3390   -1.6490  -76.8840 C   0  0  0  0  0  0  0  0  0  0  0  0
   -8.6150    0.0560  -76.2380 S   0  0  2  0  0  0  0  0  0  0  0  0
   -7.3490    0.7400  -76.1650 O   0  0  0  0  0  0  0  0  0  0  0  0
   -9.5110   -0.0770  -75.1200 O   0  0  0  0  0  0  0  0  0  0  0  0
   -9.4860    0.8520  -77.5470 C   0  0  0  0  0  0  0  0  0  0  0  0
  -10.0750    2.0850  -77.3030 C   0  0  0  0  0  0  0  0  0  0  0  0
  -10.6920    2.3840  -76.0950 C   0  0  0  0  0  0  0  0  0  0  0  0
  -10.0650    3.0530  -78.3130 C   0  0  0  0  0  0  0  0  0  0  0  0
  -11.3150    3.6160  -75.8910 C   0  0  0  0  0  0  0  0  0  0  0  0
  -10.6760    4.2760  -78.1290 C   0  0  0  0  0  0  0  0  0  0  0  0
  -11.3100    4.5590  -76.9260 C   0  0  0  0  0  0  0  0  0  0  0  0
   -7.5870    4.1150  -80.0080 H   0  0  0  0  0  0  0  0  0  0  0  0
   -6.0810    3.1790  -80.0050 H   0  0  0  0  0  0  0  0  0  0  0  0
   -7.0750    3.2640  -78.5210 H   0  0  0  0  0  0  0  0  0  0  0  0
   -7.5110    1.2550  -78.0780 H   0  0  0  0  0  0  0  0  0  0  0  0
   -8.6840   -0.8040  -78.4290 H   0  0  0  0  0  0  0  0  0  0  0  0
   -9.5510    0.3640  -82.4980 H   0  0  0  0  0  0  0  0  0  0  0  0
   -9.5490   -2.5420  -81.1010 H   0  0  0  0  0  0  0  0  0  0  0  0
  -10.9620   -1.6490  -80.5570 H   0  0  0  0  0  0  0  0  0  0  0  0
  -10.4420   -2.5140  -78.4940 H   0  0  0  0  0  0  0  0  0  0  0  0
   -9.0760   -2.3140  -76.4220 H   0  0  0  0  0  0  0  0  0  0  0  0
   -7.3500   -1.9620  -76.5230 H   0  0  0  0  0  0  0  0  0  0  0  0
  -10.2990    0.1650  -77.8020 H   0  0  0  0  0  0  0  0  0  0  0  0
   -8.8220    0.8120  -78.3980 H   0  0  0  0  0  0  0  0  0  0  0  0
  -10.6610    1.5920  -75.3380 H   0  0  0  0  0  0  0  0  0  0  0  0
   -9.5830    2.8550  -79.2670 H   0  0  0  0  0  0  0  0  0  0  0  0
  -11.8010    3.8310  -74.9410 H   0  0  0  0  0  0  0  0  0  0  0  0
  -10.6610    5.0080  -78.9290 H   0  0  0  0  0  0  0  0  0  0  0  0
  -11.8010    5.5180  -76.7910 H   0  0  0  0  0  0  0  0  0  0  0  0
  1  2  1  0
  2  3  2  0
  2  4  1  0
  3  5  1  0
  4  6  2  0
  4  7  1  0
  5  8  2  0
  6  8  1  0
  8  9  1  0
  9 10  1  0
 10 11  1  0
 11 12  2  0
 11 13  1  0
 14 13  1  6
 14 15  2  0
 14 16  2  0
 14 17  1  0
 17 18  1  0
 18 19  2  0
 18 20  1  0
 19 21  1  0
 20 22  2  0
 21 23  2  0
 22 23  1  0
  1 24  1  0
  1 25  1  0
  1 26  1  0
  3 27  1  0
  5 28  1  0
  6 29  1  0
  9 30  1  0
  9 31  1  0
 10 32  1  0
 13 33  1  0
 13 34  1  0
 17 35  1  0
 17 36  1  0
 19 37  1  0
 20 38  1  0
 21 39  1  0
 22 40  1  0
 23 41  1  0
M  END
