
     RDKit          3D

 14 15  0  0  0  0  0  0  0  0999 V2000
   -8.0760    3.1200  -81.7440 F   0  0  0  0  0  0  0  0  0  0  0  0
   -8.4320    1.9020  -81.2750 C   0  0  0  0  0  0  0  0  0  0  0  0
   -9.1970    1.0920  -82.0750 C   0  0  0  0  0  0  0  0  0  0  0  0
   -9.5670   -0.1210  -81.6030 C   0  0  0  0  0  0  0  0  0  0  0  0
   -9.1690   -0.5270  -80.3550 C   0  0  0  0  0  0  0  0  0  0  0  0
   -8.3350    0.2570  -79.5760 C   0  0  0  0  0  0  0  0  0  0  0  0
   -7.9630    1.5160  -80.0310 C   0  0  2  0  0  0  0  0  0  0  0  0
   -7.1440    2.4310  -79.1600 C   0  0  0  0  0  0  0  0  0  0  0  0
   -7.5480    2.4440  -77.7620 N   0  0  0  0  0  0  0  0  0  0  0  0
   -8.7570    3.0470  -77.3950 C   0  0  0  0  0  0  0  0  0  0  0  0
   -9.4730    4.0120  -78.0970 C   0  0  0  0  0  0  0  0  0  0  0  0
  -10.5770    4.3330  -77.4370 N   0  0  0  0  0  0  0  0  0  0  0  0
  -10.5990    3.5670  -76.3260 N   0  0  0  0  0  0  0  0  0  0  0  0
   -9.5220    2.7740  -76.2600 C   0  0  0  0  0  0  0  0  0  0  0  0
  2  1  1  0
  3  2  1  0
  4  3  1  0
  5  4  1  0
  6  5  1  0
  7  6  1  0
  7  2  1  0
  7  8  1  1
  9  8  1  0
 10  9  1  0
 11 10  1  0
 12 11  1  0
 13 12  1  0
 14 13  1  0
 14 10  1  0
M  END
$$$$
