
     RDKit          3D

 18 20  0  0  0  0  0  0  0  0999 V2000
   -3.7470    3.8580  -77.7050 O   0  0  0  0  0  0  0  0  0  0  0  0
   -4.7750    2.8930  -77.5870 C   0  0  1  0  0  0  0  0  0  0  0  0
   -6.0800    3.4680  -77.0510 C   0  0  0  0  0  0  0  0  0  0  0  0
   -6.8040    2.6760  -78.0720 N   0  0  0  0  0  0  0  0  0  0  0  0
   -5.5580    2.3780  -78.8310 C   0  0  0  0  0  0  0  0  0  0  0  0
   -7.9710    3.2340  -78.7360 C   0  0  2  0  0  0  0  0  0  0  0  0
   -9.1750    3.5480  -77.8610 C   0  0  0  0  0  0  0  0  0  0  0  0
  -10.0020    4.6100  -78.2000 C   0  0  0  0  0  0  0  0  0  0  0  0
  -11.1180    4.9320  -77.4390 C   0  0  0  0  0  0  0  0  0  0  0  0
  -11.4220    4.1900  -76.3260 C   0  0  0  0  0  0  0  0  0  0  0  0
  -10.6090    3.1360  -75.9760 C   0  0  0  0  0  0  0  0  0  0  0  0
   -9.4970    2.7960  -76.7480 C   0  0  0  0  0  0  0  0  0  0  0  0
   -8.3300    2.2600  -79.8430 C   0  0  0  0  0  0  0  0  0  0  0  0
   -8.3560    2.6900  -81.1600 C   0  0  0  0  0  0  0  0  0  0  0  0
   -8.6950    1.7960  -82.1610 C   0  0  0  0  0  0  0  0  0  0  0  0
   -8.9830    0.4790  -81.8590 C   0  0  0  0  0  0  0  0  0  0  0  0
   -8.9700    0.0560  -80.5600 C   0  0  0  0  0  0  0  0  0  0  0  0
   -8.6010    0.9280  -79.5510 C   0  0  0  0  0  0  0  0  0  0  0  0
  2  1  1  6
  3  2  1  0
  4  3  1  0
  5  4  1  0
  5  2  1  0
  6  4  1  0
  6  7  1  1
  8  7  2  0
  9  8  1  0
 10  9  2  0
 11 10  1  0
 12  7  1  0
 12 11  2  0
 13  6  1  0
 14 13  2  0
 15 14  1  0
 16 15  2  0
 17 16  1  0
 18 17  2  0
 18 13  1  0
M  END
