
     RDKit          3D

 20 20  0  0  0  0  0  0  0  0999 V2000
   -1.2790    7.2790  -31.9870 C   0  0  0  0  0  0  0  0  0  0  0  0
   -1.3490    6.3690  -30.8690 N   0  0  0  0  0  0  0  0  0  0  0  0
   -0.2130    5.8260  -30.2840 C   0  0  0  0  0  0  0  0  0  0  0  0
    0.9140    6.2800  -30.4510 O   0  0  0  0  0  0  0  0  0  0  0  0
   -0.5120    4.5970  -29.3880 C   0  0  2  0  0  0  0  0  0  0  0  0
   -0.3020    4.8920  -28.0410 C   0  0  0  0  0  0  0  0  0  0  0  0
    0.2810    3.4200  -29.8050 N   0  0  0  0  0  0  0  0  0  0  0  0
   -0.2990    2.4990  -30.6800 C   0  0  0  0  0  0  0  0  0  0  0  0
   -1.3120    2.7710  -31.2710 O   0  0  0  0  0  0  0  0  0  0  0  0
    0.3510    1.2910  -30.8010 N   0  0  0  0  0  0  0  0  0  0  0  0
    1.6940    1.1310  -31.1290 C   0  0  0  0  0  0  0  0  0  0  0  0
    2.3520   -0.0820  -31.3860 C   0  0  0  0  0  0  0  0  0  0  0  0
    2.3770    2.3280  -31.1690 C   0  0  0  0  0  0  0  0  0  0  0  0
    3.7280   -0.0740  -31.6570 C   0  0  0  0  0  0  0  0  0  0  0  0
    3.7330    2.3960  -31.4280 C   0  0  0  0  0  0  0  0  0  0  0  0
    4.4610    1.2500  -31.6650 C   0  0  0  0  0  0  0  0  0  0  0  0
    5.8380    1.3040  -31.8960 N   0  0  0  0  0  0  0  0  0  0  0  0
    6.5970    2.3990  -31.5180 C   0  0  0  0  0  0  0  0  0  0  0  0
    8.0290    2.0610  -31.2080 C   0  0  0  0  0  0  0  0  0  0  0  0
    6.2010    3.5540  -31.4190 O   0  0  0  0  0  0  0  0  0  0  0  0
  1  2  1  0
  2  3  1  0
  3  4  2  0
  3  5  1  0
  5  6  1  1
  5  7  1  0
  7  8  1  0
  8  9  2  0
  8 10  1  0
 10 11  1  0
 11 12  2  0
 11 13  1  0
 12 14  1  0
 13 15  2  0
 14 16  2  0
 15 16  1  0
 16 17  1  0
 17 18  1  0
 18 19  1  0
 18 20  2  0
M  END
$$$$

     RDKit          3D

 25 25  0  0  0  0  0  0  0  0999 V2000
   -2.9170    7.6660  -29.0490 C   0  0  0  0  0  0  0  0  0  0  0  0
   -3.2420    8.1430  -30.3660 O   0  0  0  0  0  0  0  0  0  0  0  0
   -2.1990    8.1380  -31.2270 C   0  0  0  0  0  0  0  0  0  0  0  0
   -1.6850    9.2000  -31.5630 O   0  0  0  0  0  0  0  0  0  0  0  0
   -1.7580    6.7680  -31.7480 C   0  0  1  0  0  0  0  0  0  0  0  0
   -0.8410    6.8360  -32.7590 C   0  0  0  0  0  0  0  0  0  0  0  0
   -1.3250    5.9500  -30.6120 N   0  0  0  0  0  0  0  0  0  0  0  0
   -0.0050    5.6630  -30.2970 C   0  0  0  0  0  0  0  0  0  0  0  0
    0.9340    6.3940  -30.6090 O   0  0  0  0  0  0  0  0  0  0  0  0
    0.2040    4.4720  -29.5700 C   0  0  1  0  0  0  0  0  0  0  0  0
   -0.4960    4.4650  -28.3640 C   0  0  0  0  0  0  0  0  0  0  0  0
   -0.3340    3.4160  -30.4610 N   0  0  0  0  0  0  0  0  0  0  0  0
   -0.2940    2.0420  -30.1760 C   0  0  0  0  0  0  0  0  0  0  0  0
   -0.5990    1.5940  -29.1030 O   0  0  0  0  0  0  0  0  0  0  0  0
    0.1760    1.2990  -31.2550 N   0  0  0  0  0  0  0  0  0  0  0  0
    1.5490    1.2220  -31.4300 C   0  0  0  0  0  0  0  0  0  0  0  0
    2.3000    2.5090  -31.3440 C   0  0  0  0  0  0  0  0  0  0  0  0
    2.2530    0.0170  -31.6580 C   0  0  0  0  0  0  0  0  0  0  0  0
    3.7570    2.4670  -31.4820 C   0  0  0  0  0  0  0  0  0  0  0  0
    3.6680   -0.0030  -31.7890 C   0  0  0  0  0  0  0  0  0  0  0  0
    4.4450    1.1770  -31.7020 C   0  0  0  0  0  0  0  0  0  0  0  0
    5.8410    1.1500  -31.8120 N   0  0  0  0  0  0  0  0  0  0  0  0
    6.6050    2.2660  -31.4880 C   0  0  0  0  0  0  0  0  0  0  0  0
    7.9380    1.9730  -31.2110 C   0  0  0  0  0  0  0  0  0  0  0  0
    6.2050    3.4230  -31.4280 O   0  0  0  0  0  0  0  0  0  0  0  0
  1  2  1  0
  2  3  1  0
  3  4  2  0
  3  5  1  0
  5  6  1  6
  5  7  1  0
  7  8  1  0
  8  9  2  0
  8 10  1  0
 10 11  1  1
 10 12  1  0
 12 13  1  0
 13 14  2  0
 13 15  1  0
 15 16  1  0
 16 17  2  0
 16 18  1  0
 17 19  1  0
 18 20  2  0
 19 21  2  0
 20 21  1  0
 21 22  1  0
 22 23  1  0
 23 24  1  0
 23 25  2  0
M  END
$$$$

     RDKit          3D

 30 31  0  0  0  0  0  0  0  0999 V2000
   -4.9650    6.0830  -36.7830 C   0  0  0  0  0  0  0  0  0  0  0  0
   -4.0550    7.0600  -36.0530 C   0  0  0  0  0  0  0  0  0  0  0  0
   -4.0710    8.2660  -36.2500 O   0  0  0  0  0  0  0  0  0  0  0  0
   -3.1770    6.4070  -35.0990 N   0  0  0  0  0  0  0  0  0  0  0  0
   -2.6850    7.1150  -34.0170 C   0  0  0  0  0  0  0  0  0  0  0  0
   -2.5720    8.6390  -34.1820 C   0  0  0  0  0  0  0  0  0  0  0  0
   -2.3010    6.4820  -32.8310 C   0  0  0  0  0  0  0  0  0  0  0  0
   -2.0310    9.3700  -32.9470 C   0  0  0  0  0  0  0  0  0  0  0  0
   -1.8030    7.1880  -31.7070 C   0  0  0  0  0  0  0  0  0  0  0  0
   -1.6800    8.5560  -31.7400 C   0  0  0  0  0  0  0  0  0  0  0  0
   -1.4500    6.4400  -30.5580 N   0  0  0  0  0  0  0  0  0  0  0  0
   -0.1600    6.0730  -30.1300 C   0  0  0  0  0  0  0  0  0  0  0  0
    0.8850    6.6840  -30.3230 O   0  0  0  0  0  0  0  0  0  0  0  0
   -0.1740    4.8690  -29.4310 C   0  0  1  0  0  0  0  0  0  0  0  0
   -0.7830    4.8720  -28.0180 C   0  0  0  0  0  0  0  0  0  0  0  0
   -0.9330    3.9100  -30.3390 C   0  0  1  0  0  0  0  0  0  0  0  0
   -1.2200    4.5650  -31.5050 C   0  0  0  0  0  0  0  0  0  0  0  0
   -0.1590    2.7130  -30.8620 C   0  0  0  0  0  0  0  0  0  0  0  0
   -0.7480    1.6570  -31.0580 O   0  0  0  0  0  0  0  0  0  0  0  0
    1.1880    2.9350  -31.1120 N   0  0  0  0  0  0  0  0  0  0  0  0
    2.0920    1.8940  -31.3880 C   0  0  0  0  0  0  0  0  0  0  0  0
    1.6500    0.5990  -31.6330 C   0  0  0  0  0  0  0  0  0  0  0  0
    3.4770    2.1540  -31.4130 C   0  0  0  0  0  0  0  0  0  0  0  0
    2.5580   -0.4160  -31.8890 C   0  0  0  0  0  0  0  0  0  0  0  0
    4.4110    1.1270  -31.6760 C   0  0  0  0  0  0  0  0  0  0  0  0
    3.9310   -0.1580  -31.9100 C   0  0  0  0  0  0  0  0  0  0  0  0
    5.7960    1.4560  -31.6840 N   0  0  0  0  0  0  0  0  0  0  0  0
    6.3520    2.6710  -31.3360 C   0  0  0  0  0  0  0  0  0  0  0  0
    7.8580    2.6040  -31.2480 C   0  0  0  0  0  0  0  0  0  0  0  0
    5.7650    3.7160  -31.1090 O   0  0  0  0  0  0  0  0  0  0  0  0
  1  2  1  0
  2  3  2  0
  2  4  1  0
  4  5  1  0
  5  6  2  0
  5  7  1  0
  6  8  1  0
  7  9  2  0
  8 10  2  0
  9 10  1  0
  9 11  1  0
 11 12  1  0
 12 13  2  0
 12 14  1  0
 14 15  1  1
 14 16  1  0
 16 17  1  6
 16 18  1  0
 18 19  2  0
 18 20  1  0
 20 21  1  0
 21 22  2  0
 21 23  1  0
 22 24  1  0
 23 25  2  0
 24 26  2  0
 25 26  1  0
 25 27  1  0
 27 28  1  0
 28 29  1  0
 28 30  2  0
M  END
$$$$
