
     RDKit          3D

 13 13  0  0  0  0  0  0  0  0999 V2000
  -12.4110    5.2010  -77.2100 C   0  0  0  0  0  0  0  0  0  0  0  0
  -11.2540    4.2610  -77.0190 C   0  0  0  0  0  0  0  0  0  0  0  0
  -10.3060    4.1010  -78.0210 C   0  0  0  0  0  0  0  0  0  0  0  0
   -9.2610    3.2060  -77.8650 C   0  0  0  0  0  0  0  0  0  0  0  0
   -9.0910    2.5050  -76.6820 C   0  0  0  0  0  0  0  0  0  0  0  0
   -7.9490    1.5410  -76.4970 C   0  0  0  0  0  0  0  0  0  0  0  0
   -8.4980   -0.1570  -76.5650 S   0  0  2  0  0  0  0  0  0  0  0  0
   -8.8180   -0.4570  -77.9290 O   0  0  0  0  0  0  0  0  0  0  0  0
   -9.4790   -0.3900  -75.5510 O   0  0  0  0  0  0  0  0  0  0  0  0
   -7.2180   -1.0450  -76.1710 N   0  0  0  0  0  0  0  0  0  0  0  0
   -9.9960    2.7070  -75.6550 C   0  0  0  0  0  0  0  0  0  0  0  0
  -11.0530    3.5580  -75.8510 C   0  0  0  0  0  0  0  0  0  0  0  0
  -11.9070    3.7130  -74.8140 F   0  0  0  0  0  0  0  0  0  0  0  0
  2  1  1  0
  3  2  2  0
  4  3  1  0
  5  4  2  0
  6  5  1  0
  7  6  1  0
  8  7  2  0
  9  7  2  0
  7 10  1  1
 11  5  1  0
 12  2  1  0
 12 11  2  0
 13 12  1  0
M  END
