
     RDKit          3D

 13 13  0  0  0  0  0  0  0  0999 V2000
  -14.0300    7.0960  -73.2250 C   0  0  0  0  0  0  0  0  0  0  0  0
  -12.5680    6.2580  -73.7410 S   0  0  1  0  0  0  0  0  0  0  0  0
  -11.3900    6.9650  -73.3110 O   0  0  0  0  0  0  0  0  0  0  0  0
  -12.7370    4.8720  -73.3890 O   0  0  0  0  0  0  0  0  0  0  0  0
  -12.5500    6.3340  -75.3530 N   0  0  0  0  0  0  0  0  0  0  0  0
  -13.4580    5.4460  -76.0810 C   0  0  0  0  0  0  0  0  0  0  0  0
  -12.8140    4.9240  -77.3590 C   0  0  0  0  0  0  0  0  0  0  0  0
  -11.5440    4.1460  -77.1130 C   0  0  0  0  0  0  0  0  0  0  0  0
  -11.4910    3.1580  -76.1420 C   0  0  0  0  0  0  0  0  0  0  0  0
  -10.3280    2.4370  -75.9340 C   0  0  0  0  0  0  0  0  0  0  0  0
   -9.2100    2.6900  -76.6990 C   0  0  0  0  0  0  0  0  0  0  0  0
   -9.2430    3.6760  -77.6600 C   0  0  0  0  0  0  0  0  0  0  0  0
  -10.4110    4.3920  -77.8760 C   0  0  0  0  0  0  0  0  0  0  0  0
  2  1  1  1
  3  2  1  0
  4  2  1  0
  5  2  1  0
  6  5  1  0
  7  6  1  0
  8  7  1  0
  9  8  1  0
 10  9  1  0
 11 10  1  0
 12 11  1  0
 13  8  1  0
 13 12  1  0
M  END
$$$$
